0615_EXP_CURRENTS.CSV
Element, I1_1, Ang1_1, I1_2, Ang1_2, I1_3, Ang1_3, I1_4, Ang1_4, Iresid1, AngResid1, I2_1, Ang2_1, I2_2, Ang2_2, I2_3, Ang2_3, I2_4, Ang2_4, Iresid2, AngResid2
Vsource.SOURCE,    852.958,   141.27,    852.958,    21.27,    852.958,   -98.73,          0,     0.00, 3.07687E-006,    42.33,    852.958,   -38.73,    852.958,  -158.73,    852.958,    81.27,          0,     0.00, 3.07687E-006,  -137.67
Line.L_65641595,    852.958,   -38.73,    852.958,  -158.73,    852.958,    81.27,          0,     0.00, 3.19268E-006,  -151.70,    852.958,   141.27,    852.958,    21.27,    852.958,   -98.73,          0,     0.00, 3.19051E-006,    28.24
Line.L_65641611,    852.958,   -38.73,    852.958,  -158.73,    852.958,    81.27,          0,     0.00, 3.19848E-006,  -151.72,    852.958,   141.27,    852.958,    21.27,    852.958,   -98.73,          0,     0.00, 3.19886E-006,    28.25
Line.L_65641628,    852.958,   -38.73,    852.958,  -158.73,    852.958,    81.27,          0,     0.00, 3.21794E-006,  -151.67,    852.958,   141.27,    852.958,    21.27,    852.958,   -98.73,          0,     0.00, 3.21574E-006,    28.38
Line.L_65490270, 1.06187E-008,   164.74, 9.31323E-010,   -90.00, 4.65661E-009,   -53.13,          0,     0.00, 7.67988E-009,  -165.96, 1.23729E-008,   -19.80, 1.67897E-009,   146.31, 4.65661E-009,   126.87,          0,     0.00, 7.46512E-009,     3.58
Line.L_65641643,    852.958,   -38.73,    852.958,  -158.73,    852.958,    81.27,          0,     0.00, 3.22444E-006,  -151.77,    852.958,   141.27,    852.958,    21.27,    852.958,   -98.73,          0,     0.00, 3.22258E-006,    28.24
Line.L_65641658,    852.958,   -38.73,    852.958,  -158.73,    852.958,    81.27,          0,     0.00, 3.23775E-006,  -151.67,    852.958,   141.27,    852.958,    21.27,    852.958,   -98.73,          0,     0.00, 3.24005E-006,    28.34
Line.L_70004415,    637.174,   -37.86,    637.174,  -157.86,    637.174,    82.14,          0,     0.00, 1.9681E-006,  -148.74,    637.174,   142.14,    637.174,    22.14,    637.174,   -97.86,          0,     0.00, 1.96834E-006,    31.27
Line.L_65469923, 6.46917E-009,   120.26, 6.58545E-010,   -45.00, 3.72529E-009,   -90.00,          0,     0.00, 3.12375E-009,   153.43, 5.83472E-009,   -61.39, 9.31323E-010,   180.00, 2.32831E-009,   126.87,          0,     0.00, 3.29272E-009,   -81.87
Line.L_65394102, 1.62181E-008,   140.83, 9.42892E-009,   -20.22, 5.96337E-009,   -38.66,          0,     0.00, 3.39007E-009,    74.05, 1.65817E-008,   -38.16, 9.58855E-009,   150.95, 8.5484E-009,   119.36,          0,     0.00, 1.91997E-009,    75.96
Line.L_65394133,    852.958,   -38.73,    852.958,  -158.73,    852.958,    81.27,          0,     0.00, 3.2531E-006,  -151.37,    852.958,   141.27,    852.958,    21.27,    852.958,   -98.73,          0,     0.00, 3.25254E-006,    28.66
Line.L_65474357,    852.958,   -38.73,    852.958,  -158.73,    852.958,    81.27,          0,     0.00, 3.27428E-006,  -151.41,    852.958,   141.27,    852.958,    21.27,    852.958,   -98.73,          0,     0.00, 3.27079E-006,    28.51
Line.L_65393942,    691.548,   -38.13,    691.548,  -158.13,    691.548,    81.87,          0,     0.00, 2.66671E-006,  -140.16,    691.548,   141.87,    691.548,    21.87,    691.548,   -98.13,          0,     0.00, 2.66217E-006,    39.82
Line.L_65474409,    691.548,   -38.13,    691.548,  -158.13,    691.548,    81.87,          0,     0.00, 2.65832E-006,  -139.97,    691.548,   141.87,    691.548,    21.87,    691.548,   -98.13,          0,     0.00, 2.66047E-006,    40.07
Line.L_65393937,    691.548,   -38.13,    691.548,  -158.13,    691.548,    81.87,          0,     0.00, 2.65273E-006,  -139.89,    691.548,   141.87,    691.548,    21.87,    691.548,   -98.13,          0,     0.00, 2.65403E-006,    40.03
Line.L_70004463,    691.548,   -38.13,    691.548,  -158.13,    691.548,    81.87,          0,     0.00, 2.66659E-006,  -140.13,    691.548,   141.87,    691.548,    21.87,    691.548,   -98.13,          0,     0.00, 2.66623E-006,    39.88
Line.L_65394132,    852.958,   -38.73,    852.958,  -158.73,    852.958,    81.27,          0,     0.00, 3.25039E-006,  -151.48,    852.958,   141.27,    852.958,    21.27,    852.958,   -98.73,          0,     0.00, 3.24969E-006,    28.48
Line.L_70004493,    691.548,   -38.13,    691.548,  -158.13,    691.548,    81.87,          0,     0.00, 2.66736E-006,  -140.16,    691.548,   141.87,    691.548,    21.87,    691.548,   -98.13,          0,     0.00, 2.6648E-006,    39.82
Line.L_65641631,    852.958,   -38.73,    852.958,  -158.73,    852.958,    81.27,          0,     0.00, 3.21381E-006,  -151.65,    852.958,   141.27,    852.958,    21.27,    852.958,   -98.73,          0,     0.00, 3.21334E-006,    28.31
Line.L_65393939,    691.548,   -38.13,    691.548,  -158.13,    691.548,    81.87,          0,     0.00, 2.66165E-006,  -140.05,    691.548,   141.87,    691.548,    21.87,    691.548,   -98.13,          0,     0.00, 2.662E-006,    39.86
Line.L_70004440,    637.174,   -37.86,    637.174,  -157.86,    637.174,    82.14,          0,     0.00, 1.96641E-006,  -148.82,    637.174,   142.14,    637.174,    22.14,    637.174,   -97.86,          0,     0.00, 1.96562E-006,    31.19
Line.L_65442185, 2.83251E-009,   170.54, 3.75428E-009,   172.87, 4.165E-009,  -116.57,          0,     0.00, 8.8353E-009,  -161.57, 6.58545E-010,   -45.00, 1.04125E-009,   116.57, 2.0825E-009,    63.43,          0,     0.00, 2.50766E-009,    68.20
Line.L_65394123, 1.47916E-008,   151.82, 5.68412E-009,   -34.99,  8.33E-009,   -63.43,          0,     0.00, 5.96337E-009,  -141.34, 1.52037E-008,   -27.35, 9.59985E-009,   157.17,  8.33E-009,   116.57,          0,     0.00, 4.29318E-009,    77.47
Line.L_65462414, 1.1501E-008,   158.63, 1.67897E-009,   -33.69, 8.78608E-009,   -57.99,          0,     0.00, 6.26483E-009,  -138.01, 1.2812E-008,   -19.09, 1.91997E-009,   165.96, 9.31323E-009,   126.87,          0,     0.00, 5.96337E-009,    38.66
Line.L_65462411, 1.21072E-008,   157.38, 1.86265E-009,   -90.00, 5.96337E-009,   -38.66,          0,     0.00, 6.58545E-009,  -171.87, 1.22231E-008,   -17.74, 2.37442E-009,    78.69, 6.33368E-009,   143.97,          0,     0.00, 7.36275E-009,    18.43
Line.L_65641655,    852.958,   -38.73,    852.958,  -158.73,    852.958,    81.27,          0,     0.00, 3.24072E-006,  -151.76,    852.958,   141.27,    852.958,    21.27,    852.958,   -98.73,          0,     0.00, 3.24176E-006,    28.24
Line.L_65641646,    852.958,   -38.73,    852.958,  -158.73,    852.958,    81.27,          0,     0.00, 3.23053E-006,  -151.62,    852.958,   141.27,    852.958,    21.27,    852.958,   -98.73,          0,     0.00, 3.22958E-006,    28.31
Line.L_65641652,    852.958,   -38.73,    852.958,  -158.73,    852.958,    81.27,          0,     0.00, 3.23526E-006,  -151.78,    852.958,   141.27,    852.958,    21.27,    852.958,   -98.73,          0,     0.00, 3.23696E-006,    28.24
Line.L_65393956,    637.174,   -37.86,    637.174,  -157.86,    637.174,    82.14,          0,     0.00, 1.97039E-006,  -149.13,    637.174,   142.14,    637.174,    22.14,    637.174,   -97.86,          0,     0.00, 1.96927E-006,    30.92
Line.L_65393850,    637.174,   -37.86,    637.174,  -157.86,    637.174,    82.14,          0,     0.00, 1.968E-006,  -149.09,    637.174,   142.14,    637.174,    22.14,    637.174,   -97.86,          0,     0.00, 1.96616E-006,    31.01
Line.L_65490275, 1.03079E-008,   161.57, 6.33368E-009,   -17.10, 1.13682E-008,   -55.01,          0,     0.00, 8.39483E-009,   -70.56, 1.05058E-008,   -12.80, 5.20625E-009,   153.43, 7.90253E-009,   135.00,          0,     0.00, 5.58794E-009,    90.00
Line.L_65462408, 9.04151E-009,   145.49, 1.31709E-009,   135.00, 2.98169E-009,   -38.66,          0,     0.00, 7.36275E-009,   145.30, 8.94506E-009,   -38.66, 1.97563E-009,   -45.00, 2.63418E-009,   135.00,          0,     0.00, 8.29086E-009,   -38.16
Line.L_65394124, 2.48726E-008,   141.84, 1.21875E-008,   -43.45, 6.78013E-009,   -15.95,          0,     0.00, 6.61829E-009,   129.29, 2.41516E-008,   -34.00, 1.21875E-008,   133.45, 6.98492E-009,   180.00,          0,     0.00, 6.58545E-009,   -45.00
Line.L_65641614,    852.958,   -38.73,    852.958,  -158.73,    852.958,    81.27,          0,     0.00, 3.20205E-006,  -151.71,    852.958,   141.27,    852.958,    21.27,    852.958,   -98.73,          0,     0.00, 3.20183E-006,    28.28
Line.L_65490273, 1.13682E-008,   145.01, 9.27824E-009,   -17.53, 6.46917E-009,   -59.74,          0,     0.00, 3.35793E-009,   -33.69, 1.25383E-008,   -31.33, 5.68412E-009,   145.01, 4.95005E-009,   131.19,          0,     0.00, 2.83251E-009,     9.46
Line.L_65442133, 5.8902E-009,   108.43, 2.0825E-009,   153.43, 3.75428E-009,   -97.13,          0,     0.00, 5.0369E-009,   146.31, 6.2127E-009,   -77.01, 1.04125E-009,    63.43, 5.6073E-009,    85.24,          0,     0.00, 2.37442E-009,    11.31
Line.L_65394116,    852.958,   -38.73,    852.958,  -158.73,    852.958,    81.27,          0,     0.00, 3.25655E-006,  -151.42,    852.958,   141.27,    852.958,    21.27,    852.958,   -98.73,          0,     0.00, 3.25191E-006,    28.55
Line.L_65442181, 3.75428E-009,    82.87, 1.04125E-009,   153.43, 5.58794E-009,   -90.00,          0,     0.00, 1.47255E-009,  -108.43, 3.29272E-009,   -98.13, 1.04125E-009,  -153.43, 5.58794E-009,    90.00,          0,     0.00, 2.32831E-009,   126.87
Line.L_65641661,    852.958,   -38.73,    852.958,  -158.73,    852.958,    81.27,          0,     0.00, 3.24614E-006,  -151.75,    852.958,   141.27,    852.958,    21.27,    852.958,   -98.73,          0,     0.00, 3.24835E-006,    28.20
Line.L_65474354,    852.958,   -38.73,    852.958,  -158.73,    852.958,    81.27,          0,     0.00, 3.26555E-006,  -151.40,    852.958,   141.27,    852.958,    21.27,    852.958,   -98.73,          0,     0.00, 3.26696E-006,    28.58
Line.L_65474390,    852.958,   -38.73,    852.958,  -158.73,    852.958,    81.27,          0,     0.00, 3.25945E-006,  -151.42,    852.958,   141.27,    852.958,    21.27,    852.958,   -98.73,          0,     0.00, 3.25875E-006,    28.54
Line.L_65641258, 4.37101E-007,   -49.15, 1.35889E-006,   170.01, 8.308E-007,    51.28,          0,     0.00,  7.68E-007,   133.92, 4.36749E-007,   130.89, 1.35898E-006,   -10.00, 8.308E-007,  -128.72,          0,     0.00, 7.68671E-007,   -46.13
Line.L_65474360,    852.958,   -38.73,    852.958,  -158.73,    852.958,    81.27,          0,     0.00, 3.26496E-006,  -151.49,    852.958,   141.27,    852.958,    21.27,    852.958,   -98.73,          0,     0.00, 3.26369E-006,    28.51
Line.L_65474349,    852.958,   -38.73,    852.958,  -158.73,    852.958,    81.27,          0,     0.00, 3.26619E-006,  -151.50,    852.958,   141.27,    852.958,    21.27,    852.958,   -98.73,          0,     0.00, 3.26555E-006,    28.50
Line.L_65641276, 4.35131E-007,   -49.17, 1.36076E-006,   169.91, 8.31092E-007,    51.25,          0,     0.00, 7.72634E-007,   133.83, 4.36188E-007,   130.71, 1.36267E-006,   -10.10, 8.31092E-007,  -128.75,          0,     0.00, 7.73255E-007,   -46.02
Line.L_65641285, 4.35435E-007,   -49.12, 1.36238E-006,   169.86, 8.27313E-007,    51.17,          0,     0.00, 7.72574E-007,   134.07, 4.3614E-007,   130.80, 1.36087E-006,   -10.23, 8.31093E-007,  -128.54,          0,     0.00, 7.76628E-007,   -46.31
Line.L_65393960,    852.958,   -38.73,    852.958,  -158.73,    852.958,    81.27,          0,     0.00, 3.2722E-006,  -151.41,    852.958,   141.27,    852.958,    21.27,    852.958,   -98.73,          0,     0.00, 3.27086E-006,    28.55
Line.L_65641598,    852.958,   -38.73,    852.958,  -158.73,    852.958,    81.27,          0,     0.00, 3.18959E-006,  -151.68,    852.958,   141.27,    852.958,    21.27,    852.958,   -98.73,          0,     0.00, 3.18836E-006,    28.33
Line.L_65641634,    852.958,   -38.73,    852.958,  -158.73,    852.958,    81.27,          0,     0.00, 3.21277E-006,  -151.77,    852.958,   141.27,    852.958,    21.27,    852.958,   -98.73,          0,     0.00, 3.21384E-006,    28.24
Line.L_65641620,    852.958,   -38.73,    852.958,  -158.73,    852.958,    81.27,          0,     0.00, 3.19993E-006,  -151.73,    852.958,   141.27,    852.958,    21.27,    852.958,   -98.73,          0,     0.00, 3.20366E-006,    28.26
Line.L_65641623,    852.958,   -38.73,    852.958,  -158.73,    852.958,    81.27,          0,     0.00, 3.21179E-006,  -151.74,    852.958,   141.27,    852.958,    21.27,    852.958,   -98.73,          0,     0.00, 3.21167E-006,    28.31
Line.L_65641649,    852.958,   -38.73,    852.958,  -158.73,    852.958,    81.27,          0,     0.00, 3.23255E-006,  -151.66,    852.958,   141.27,    852.958,    21.27,    852.958,   -98.73,          0,     0.00, 3.22908E-006,    28.26
Line.L_65394110, 2.83862E-008,   131.01, 1.88578E-008,   -32.91, 1.133E-008,     9.46,          0,     0.00, 1.55003E-008,    57.26, 2.8694E-008,   -48.29, 1.64042E-008,   145.41, 1.16415E-008,   180.00,          0,     0.00, 1.35363E-008,  -116.57
Line.L_65641604,    852.958,   -38.73,    852.958,  -158.73,    852.958,    81.27,          0,     0.00, 3.19218E-006,  -151.76,    852.958,   141.27,    852.958,    21.27,    852.958,   -98.73,          0,     0.00, 3.18994E-006,    28.27
Line.L_65641267, 4.36045E-007,   -49.03, 1.35796E-006,   169.79, 8.3342E-007,    51.47,          0,     0.00, 7.74452E-007,   133.32, 4.36351E-007,   131.02, 1.35833E-006,   -10.19, 8.3342E-007,  -128.53,          0,     0.00, 7.74114E-007,   -46.66
Line.L_65641601,    852.958,   -38.73,    852.958,  -158.73,    852.958,    81.27,          0,     0.00, 3.19227E-006,  -151.70,    852.958,   141.27,    852.958,    21.27,    852.958,   -98.73,          0,     0.00, 3.19416E-006,    28.31
Line.L_65641608,    852.958,   -38.73,    852.958,  -158.73,    852.958,    81.27,          0,     0.00, 3.19855E-006,  -151.81,    852.958,   141.27,    852.958,    21.27,    852.958,   -98.73,          0,     0.00, 3.19795E-006,    28.21
Line.L_65641617,    852.958,   -38.73,    852.958,  -158.73,    852.958,    81.27,          0,     0.00, 3.20442E-006,  -151.79,    852.958,   141.27,    852.958,    21.27,    852.958,   -98.73,          0,     0.00, 3.20483E-006,    28.21
Line.L_65641637,    852.958,   -38.73,    852.958,  -158.73,    852.958,    81.27,          0,     0.00, 3.22624E-006,  -151.70,    852.958,   141.27,    852.958,    21.27,    852.958,   -98.73,          0,     0.00, 3.22769E-006,    28.30
Line.L_65641640,    852.958,   -38.73,    852.958,  -158.73,    852.958,    81.27,          0,     0.00, 3.22504E-006,  -151.79,    852.958,   141.27,    852.958,    21.27,    852.958,   -98.73,          0,     0.00, 3.22217E-006,    28.24
Line.L_65393837,      107.1,   -41.29,      107.1,  -161.29,      107.1,    78.71,          0,     0.00, 8.7797E-007,  -151.70,      107.1,   138.71,      107.1,    18.71,      107.1,  -101.29,          0,     0.00, 8.83774E-007,    28.24
Line.L_65393849,    54.4634,   -41.28,    54.4634,  -161.28,    54.4634,    78.72,          0,     0.00, 5.51356E-007,    95.28,    54.4634,   138.72,    54.4634,    18.72,    54.4634,  -101.28,          0,     0.00, 5.51356E-007,   -84.72
Line.L_65393841,    54.5077,   -41.28,    54.5077,  -161.28,    54.5077,    78.72,          0,     0.00, 5.49215E-007,    95.99,    54.5077,   138.72,    54.5077,    18.72,    54.5077,  -101.28,          0,     0.00, 5.48801E-007,   -83.96
Line.L_70004452,    54.4634,   -41.28,    54.4634,  -161.28,    54.4634,    78.72,          0,     0.00, 5.56021E-007,    95.77,    54.4634,   138.72,    54.4634,    18.72,    54.4634,  -101.28,          0,     0.00, 5.55285E-007,   -84.03
Line.L_70004443,    637.174,   -37.86,    637.174,  -157.86,    637.174,    82.14,          0,     0.00, 3.0056E-006,  -131.30,    637.174,   142.14,    637.174,    22.14,    637.174,   -97.86,          0,     0.00, 3.00806E-006,    48.65
Line.L_65490279, 1.48574E-008,   147.80, 5.0369E-009,   -33.69, 7.67988E-009,   -75.96,          0,     0.00, 6.92255E-009,  -160.35, 1.50171E-008,   -29.74, 6.2475E-009,   153.43, 5.8902E-009,   108.43,          0,     0.00, 5.66501E-009,     9.46
Line.L_TR_SUB_MT_FIC_2669,    54.5077,   -41.28,    54.5077,  -161.28,    54.5077,    78.72,          0,     0.00, 5.55184E-007,    96.74,    54.5077,   138.72,    54.5077,    18.72,    54.5077,  -101.28,          0,     0.00, 5.54667E-007,   -83.30
Line.L_TR_SUB_MT_FIC_3105,      107.1,   -41.29,      107.1,  -161.29,      107.1,    78.71,          0,     0.00, 8.85167E-007,  -151.91,      107.1,   138.71,      107.1,    18.71,      107.1,  -101.29,          0,     0.00, 8.87402E-007,    28.42
Line.L_TR_SUB_MT_FIC_3107,    54.4634,   -41.28,    54.4634,  -161.28,    54.4634,    78.72,          0,     0.00, 5.51519E-007,    96.40,    54.4634,   138.72,    54.4634,    18.72,    54.4634,  -101.28,          0,     0.00, 5.51892E-007,   -83.26
Line.L_TR_SUB_MT_FIC_3123,    637.174,   -37.86,    637.174,  -157.86,    637.174,    82.14,          0,     0.00, 1.97694E-006,  -149.10,    637.174,   142.14,    637.174,    22.14,    637.174,   -97.86,          0,     0.00, 1.97415E-006,    31.02
Line.L_65394127, 2.74266E-008,   139.82, 1.46221E-008,   -37.23, 7.91624E-009,   -28.07,          0,     0.00, 5.62661E-009,   114.44, 2.70324E-008,   -42.21, 1.51107E-008,   146.31, 6.98492E-009,   180.00,          0,     0.00, 9.78997E-009,   -87.27
Line.L_653941279, 2.53561E-008,   135.74, 1.33426E-008,   -29.25, 1.09009E-008,   -19.98,          0,     0.00,  8.33E-009,    63.43, 2.73474E-008,   -47.07, 1.4216E-008,   148.39, 1.04125E-008,   169.70,          0,     0.00, 1.13396E-008,  -109.18
Line.L_65394099, 2.00451E-008,   149.26, 7.91624E-009,   -28.07, 5.26836E-009,   -45.00,          0,     0.00, 7.09274E-009,   156.80, 2.01476E-008,   -33.69, 9.37125E-009,   153.43, 5.26836E-009,   135.00,          0,     0.00, 5.68412E-009,   -34.99
Line.L_653940999, 2.24727E-008,   145.98, 9.90009E-009,   -41.19, 6.71586E-009,   -33.69,          0,     0.00, 6.0536E-009,   157.38, 2.31195E-008,   -34.33, 1.05573E-008,   131.42, 7.10801E-009,   148.39,          0,     0.00, 6.2127E-009,   -12.99
Line.L_TR_SUB_MT_FIC_105,    54.5077,   -41.28,    54.5077,  -161.28,    54.5077,    78.72,          0,     0.00, 1.41625E-008,    27.41,    54.5077,   138.72,    54.5077,    18.72,    54.5077,  -101.28,          0,     0.00, 1.46146E-008,  -149.35
Line.L_TR_SUB_MT_FIC_109,      107.1,   -41.29,      107.1,  -161.29,      107.1,    78.71,          0,     0.00, 2.40391E-008,    44.22,      107.1,   138.71,      107.1,    18.71,      107.1,  -101.29,          0,     0.00, 2.26074E-008,  -147.62
Line.L_TR_SUB_MT_FIC_112,    106.924,   -41.27,    106.924,  -161.27,    106.924,    78.73,          0,     0.00, 2.48027E-008,    39.67,    106.924,   138.73,    106.924,    18.73,    106.924,  -101.27,          0,     0.00, 2.45876E-008,  -142.70
Line.L_TR_SUB_MT_FIC_117,    54.4634,   -41.28,    54.4634,  -161.28,    54.4634,    78.72,          0,     0.00, 1.03079E-008,    18.43,    54.4634,   138.72,    54.4634,    18.72,    54.4634,  -101.28,          0,     0.00, 9.14879E-009,  -165.26
Line.L_65393959,     745.98,   -38.36,     745.98,  -158.36,     745.98,    81.64,          0,     0.00, 2.39526E-006,  -151.19,     745.98,   141.64,     745.98,    21.64,     745.98,   -98.36,          0,     0.00, 2.39626E-006,    28.79
Line.L_65641098, 4.21741E-007,   -47.06, 1.32907E-006,   170.26, 8.50648E-007,    50.62,          0,     0.00, 7.49873E-007,   130.09, 4.22014E-007,   133.17, 1.32953E-006,    -9.74, 8.51499E-007,  -129.25,          0,     0.00, 7.52012E-007,   -50.05
Line.L_65641105, 4.20401E-007,   -46.97, 1.33306E-006,   170.21, 8.51204E-007,    50.77,          0,     0.00, 7.57391E-007,   130.16, 4.21674E-007,   133.21, 1.33069E-006,    -9.79, 8.50616E-007,  -129.18,          0,     0.00, 7.54936E-007,   -50.00
Line.L_65641114, 4.2079E-007,   -47.20, 1.3336E-006,   170.19, 8.45743E-007,    50.43,          0,     0.00, 7.5161E-007,   130.63, 4.2274E-007,   132.90, 1.33168E-006,    -9.80, 8.48026E-007,  -129.36,          0,     0.00, 7.51567E-007,   -49.65
Line.L_65641123, 4.22873E-007,   -47.54, 1.33392E-006,   170.11, 8.45996E-007,    50.61,          0,     0.00, 7.53481E-007,   130.74, 4.22873E-007,   132.46, 1.33575E-006,    -9.88, 8.49467E-007,  -129.28,          0,     0.00, 7.56914E-007,   -49.39
Line.L_65641132, 4.24532E-007,   -47.58, 1.33988E-006,   170.15, 8.46846E-007,    50.73,          0,     0.00, 7.57797E-007,   131.06, 4.23845E-007,   132.51, 1.33889E-006,    -9.83, 8.47436E-007,  -129.31,          0,     0.00, 7.56927E-007,   -49.07
Line.L_65641141, 4.25252E-007,   -47.75, 1.33683E-006,   170.09, 8.46587E-007,    50.56,          0,     0.00, 7.52985E-007,   130.91, 4.24847E-007,   132.47, 1.33851E-006,    -9.86, 8.47436E-007,  -129.31,          0,     0.00, 7.55965E-007,   -49.10
Line.L_65641150, 4.23591E-007,   -47.72, 1.34158E-006,   170.09, 8.48584E-007,    50.79,          0,     0.00, 7.62136E-007,   131.01, 4.25161E-007,   132.51, 1.3415E-006,    -9.89, 8.46846E-007,  -129.27,          0,     0.00, 7.59156E-007,   -48.98
Line.L_65641159, 4.26223E-007,   -47.70, 1.34258E-006,   170.07, 8.41388E-007,    50.39,          0,     0.00, 7.53469E-007,   131.49, 4.27478E-007,   132.48, 1.34274E-006,    -9.97, 8.40794E-007,  -129.56,          0,     0.00, 7.53551E-007,   -48.61
Line.L_65641168, 4.2826E-007,   -47.86, 1.34258E-006,   170.07, 8.36396E-007,    50.60,          0,     0.00, 7.53753E-007,   132.00, 4.28572E-007,   132.18, 1.34112E-006,    -9.92, 8.38131E-007,  -129.34,          0,     0.00, 7.53238E-007,   -48.21
Line.L_65641177, 4.25537E-007,   -48.46, 1.34617E-006,   170.12, 8.33448E-007,    50.85,          0,     0.00, 7.61829E-007,   132.82, 4.26774E-007,   131.73, 1.34692E-006,    -9.83, 8.34037E-007,  -129.20,          0,     0.00, 7.5988E-007,   -47.24
Line.L_65641186, 4.2747E-007,   -48.36, 1.34657E-006,   170.02, 8.35481E-007,    50.88,          0,     0.00, 7.62332E-007,   132.50, 4.2747E-007,   131.64, 1.3474E-006,    -9.95, 8.35187E-007,  -129.09,          0,     0.00, 7.62934E-007,   -47.40
Line.L_65641195, 4.31968E-007,   -48.80, 1.34918E-006,   169.96, 8.32594E-007,    50.72,          0,     0.00, 7.58125E-007,   132.98, 4.30961E-007,   131.23, 1.34956E-006,   -10.01, 8.32594E-007,  -129.28,          0,     0.00, 7.591E-007,   -46.99
Line.L_65641204, 4.35707E-007,   -48.34, 1.35115E-006,   170.06, 8.32843E-007,    51.11,          0,     0.00, 7.60099E-007,   132.99, 4.34317E-007,   131.83, 1.35032E-006,    -9.97, 8.31101E-007,  -128.95,          0,     0.00, 7.60123E-007,   -47.06
Line.L_65641213, 4.3242E-007,   -48.36, 1.35056E-006,   169.97, 8.32567E-007,    50.92,          0,     0.00, 7.61487E-007,   132.84, 4.30836E-007,   131.49, 1.35148E-006,   -10.02, 8.33721E-007,  -128.97,          0,     0.00, 7.65411E-007,   -47.10
Line.L_65641222, 4.36218E-007,   -48.72, 1.35407E-006,   170.04, 8.34307E-007,    50.98,          0,     0.00, 7.6067E-007,   133.19, 4.35298E-007,   131.14, 1.35469E-006,   -10.00, 8.34014E-007,  -128.99,          0,     0.00, 7.62943E-007,   -46.73
Line.L_65641231, 4.35388E-007,   -49.03, 1.35512E-006,   170.13, 8.28482E-007,    51.07,          0,     0.00, 7.61726E-007,   133.98, 4.34686E-007,   131.05, 1.35636E-006,    -9.94, 8.30516E-007,  -128.90,          0,     0.00, 7.65084E-007,   -46.26
Line.L_65641240, 4.36492E-007,   -49.24, 1.35126E-006,   169.92, 8.31101E-007,    51.05,          0,     0.00, 7.60573E-007,   133.44, 4.36796E-007,   130.81, 1.35072E-006,   -10.07, 8.31687E-007,  -129.00,          0,     0.00, 7.58954E-007,   -46.64
Line.L_65641249, 4.36796E-007,   -49.19, 1.35593E-006,   169.93, 8.31967E-007,    51.18,          0,     0.00, 7.65788E-007,   133.60, 4.37502E-007,   130.73, 1.35693E-006,   -10.08, 8.31967E-007,  -128.82,          0,     0.00, 7.66094E-007,   -46.33
Line.SW_0615_S06, 7.9968E-007,   116.57, 7.15256E-007,   180.00, 9.53674E-007,    90.00,          0,     0.00, 1.98404E-006,   122.74, 6.41962E-007,   -21.80, 2.38419E-007,     0.00, 9.53674E-007,   -90.00,          0,     0.00, 1.45513E-006,   -55.01
Line.SW_C10196_CHVPRI,      107.1,   -41.29,      107.1,  -161.29,      107.1,    78.71,          0,     0.00, 5.3312E-007,  -116.57,      107.1,   138.71,      107.1,    18.71,      107.1,  -101.29,          0,     0.00, 6.7435E-007,   -45.00
Line.SW_C10199_CHVPRI,    54.4634,   -41.28,    54.4634,  -161.28,    54.4634,    78.72,          0,     0.00, 1.49369E-006,    28.61,    54.4634,   138.72,    54.4634,    18.72,    54.4634,  -101.28,          0,     0.00, 1.62142E-006,   162.90
Line.SW_C10360_CHVPRI,    54.5077,   -41.28,    54.5077,  -161.28,    54.5077,    78.72,          0,     0.00, 2.14577E-006,     0.00,    54.5077,   138.72,    54.5077,    18.72,    54.5077,  -101.28,          0,     0.00, 1.2157E-006,   168.69
Line.SW_C10618_CHVPRI,    106.924,   -41.27,    106.924,  -161.27,    106.924,    78.73,          0,     0.00, 1.2157E-006,  -168.69,    106.924,   138.73,    106.924,    18.73,    106.924,  -101.27,          0,     0.00, 1.92219E-006,    29.74
Line.SW_CDM34_CHVPRI, 1.68587E-006,  -171.87, 1.92219E-006,     7.13, 6.7435E-007,   135.00,          0,     0.00, 5.3312E-007,   116.57, 1.52662E-006,    51.34, 1.43051E-006,   180.00, 4.76837E-007,   180.00,          0,     0.00, 1.52662E-006,   128.66
Transformer.T_C10196_SUBT,      107.1,   -41.29,      107.1,  -161.29,      107.1,    78.71, 2.44321E-008,  -152.51, 1.60777E-013,  -135.00,    3889.42,   138.71,    3889.42,    18.71,    3889.42,  -101.29, 8.87268E-007,    27.49, 3.74994E-012,   -14.04
Transformer.T_C10618_SUBT,    106.924,   -41.27,    106.924,  -161.27,    106.924,    78.73, 2.45833E-008,  -152.21, 8.52651E-014,   -90.00,    3883.03,   138.73,    3883.03,    18.73,    3883.03,  -101.27, 8.92766E-007,    27.79, 5.75215E-012,  -108.43
Transformer.T_C10199_SUBT,    54.4634,   -41.28,    54.4634,  -161.28,    54.4634,    78.72, 1.24799E-008,  -152.34, 8.98773E-014,   108.43,    1977.88,   138.72,    1977.88,    18.72,    1977.88,  -101.28, 4.53215E-007,    27.66, 9.09495E-013,   180.00
Transformer.T_C10360_SUBT,    54.5077,   -41.28,    54.5077,  -161.28,    54.5077,    78.72, 1.24366E-008,  -152.51, 2.84217E-014,   -90.00,    1979.49,   138.72,    1979.49,    18.72,    1979.49,  -101.28, 4.51646E-007,    27.49, 1.28622E-012,    45.00
Load.L_C10196_SUBT,     3889.4,   -41.28,     3889.4,  -161.28,     3889.4,    78.72, 8.8726E-007,  -152.51,          0,     0.00,          0,     0.00,          0,     0.00,          0,     0.00,          0,     0.00,          0,     0.00
Load.L_C10618_SUBT,    3883.01,   -41.27,    3883.01,  -161.27,    3883.01,    78.73, 8.92763E-007,  -152.21,          0,     0.00,          0,     0.00,          0,     0.00,          0,     0.00,          0,     0.00,          0,     0.00
Load.L_C10199_SUBT,    1977.87,   -41.28,    1977.87,  -161.28,    1977.87,    78.72, 4.53215E-007,  -152.33,          0,     0.00,          0,     0.00,          0,     0.00,          0,     0.00,          0,     0.00,          0,     0.00
Load.L_C10360_SUBT,    1979.48,   -41.28,    1979.48,  -161.28,    1979.48,    78.72, 4.51645E-007,  -152.51,          0,     0.00,          0,     0.00,          0,     0.00,          0,     0.00,          0,     0.00,          0,     0.00
Load.CARGA_PONTA_0615_PIOR_CASO_EXTREMO,    530.478,   -37.18,    530.478,  -157.18,    530.478,    82.82, 8.39409E-008,   178.52,          0,     0.00,          0,     0.00,          0,     0.00,          0,     0.00,          0,     0.00,          0,     0.00
